@!IC, SBASE,REV,XFRRAT,NXFRAT,BASFRQ
0,   100.00, 34,     0,     0, 50.00     / PSS(R)E-34.8    THU, JUL 27 2023  15:41
THIS IS A SYNTHETIC POWER SYSTEM MODEL THAT DOES NOT REPRESE
DATA RESEARCH PROJECT AND CONTAINS NO CEII.
GENERAL, THRSHZ=0.0001, PQBRAK=0.7, BLOWUP=5.0
GAUSS, ITMX=100, ACCP=1.6, ACCQ=1.6, ACCM=1.0, TOL=0.0001
NEWTON, ITMXN=20, ACCN=1.0, TOLN=0.1, VCTOLQ=0.1, VCTOLV=0.00001, DVLIM=0.99, NDVFCT=0.99
ADJUST, ADJTHR=0.005, ACCTAP=1.0, TAPLIM=0.05, SWVBND=100.0, MXTPSS=99, MXSWIM=10
TYSL, ITMXTY=20, ACCTY=1.0, TOLTY=0.00001
SOLVER, FNSL, ACTAPS=0, AREAIN=0, PHSHFT=0, DCTAPS=1, SWSHNT=1, FLATST=0, VARLIM=-1, NONDIV=0
RATING, 1, "RATE1 ", "RATING SET 1                    "
RATING, 2, "RATE2 ", "RATING SET 2                    "
RATING, 3, "RATE3 ", "RATING SET 3                    "
RATING, 4, "RATE4 ", "RATING SET 4                    "
RATING, 5, "RATE5 ", "RATING SET 5                    "
RATING, 6, "RATE6 ", "RATING SET 6                    "
RATING, 7, "RATE7 ", "RATING SET 7                    "
RATING, 8, "RATE8 ", "RATING SET 8                    "
RATING, 9, "RATE9 ", "RATING SET 9                    "
RATING,10, "RATE10", "RATING SET 10                   "
RATING,11, "RATE11", "RATING SET 11                   "
RATING,12, "RATE12", "RATING SET 12                   "
0 / END OF SYSTEM-WIDE DATA, BEGIN BUS DATA
@!   I,'NAME        ', BASKV, IDE,AREA,ZONE,OWNER, VM,        VA,    NVHI,   NVLO,   EVHI,   EVLO
     1,'ODESSA 2 0  ', 115.0000,1,   1,   9,   1,0.94713, -27.6998,1.10000,0.90000,1.10000,0.90000
     2,'PRESIDIO 2 0', 115.0000,1,   1,   9,   1,0.99817, -22.5194,1.10000,0.90000,1.10000,0.90000
     3,'O DONNELL ~1', 115.0000,1,   1,   9,   1,1.00155, -22.7778,1.10000,0.90000,1.10000,0.90000
     4,'O DONNELL ~2', 230.0000,2,   1,   9,   1,1.01000, -24.6190,1.10000,0.90000,1.10000,0.90000
     5,'BIG SPRING~8', 115.0000,1,   1,   9,   1,0.98157, -20.6425,1.10000,0.90000,1.10000,0.90000
     6,'BIG SPRING~9',  13.8000,2,   1,   9,   1,1.00000, -18.4752,1.10000,0.90000,1.10000,0.90000
     7,'VAN HORN 0  ', 115.0000,1,   1,   9,   1,1.00414, -22.9880,1.10000,0.90000,1.10000,0.90000
     8,'IRAAN 2 0   ', 115.0000,1,   1,   9,   1,1.00139, -12.1189,1.10000,0.90000,1.10000,0.90000
     9,'IRAAN 2 1   ',  13.8000,2,   1,   9,   1,1.00000,  -8.7574,1.10000,0.90000,1.10000,0.90000
    10,'PRESIDIO 1 0', 115.0000,1,   1,   9,   1,1.00624, -21.1720,1.10000,0.90000,1.10000,0.90000
    11,'PRESIDIO 1 1',  22.0000,2,   1,   9,   1,1.00644, -19.3404,1.10000,0.90000,1.10000,0.90000
    12,'SANDERSON 0 ', 115.0000,1,   1,   9,   1,0.91198, -29.1362,1.10000,0.90000,1.10000,0.90000
    13,'MONAHANS 2 0', 115.0000,1,   1,   9,   1,0.98365, -19.9806,1.10000,0.90000,1.10000,0.90000
    14,'GRANDFALLS 0', 115.0000,1,   1,   9,   1,0.99073, -16.0920,1.10000,0.90000,1.10000,0.90000
    15,'MARFA 0     ', 115.0000,1,   1,   9,   1,1.00695, -22.6727,1.10000,0.90000,1.10000,0.90000
    16,'GARDEN CIT~1', 115.0000,1,   1,   9,   1,0.97680, -19.6697,1.10000,0.90000,1.10000,0.90000
    17,'ODESSA 4 0  ', 115.0000,1,   1,   9,   1,0.94639, -26.2314,1.10000,0.90000,1.10000,0.90000
    18,'NOTREES 0   ', 115.0000,1,   1,   9,   1,0.96946, -25.1884,1.10000,0.90000,1.10000,0.90000
    19,'MIDLAND 4 0 ', 115.0000,1,   1,   9,   1,0.95634, -27.1633,1.10000,0.90000,1.10000,0.90000
    20,'BIG SPRING~1', 115.0000,1,   1,   9,   1,1.00752, -20.1506,1.10000,0.90000,1.10000,0.90000
    21,'BIG SPRING~2',  13.8000,2,   1,   9,   1,1.00000, -13.4749,1.10000,0.90000,1.10000,0.90000
    22,'O DONNELL ~3', 115.0000,1,   1,   9,   1,1.00716, -21.9159,1.10000,0.90000,1.10000,0.90000
    23,'O DONNELL ~4',  13.8000,2,   1,   9,   1,1.01000, -12.9785,1.10000,0.90000,1.10000,0.90000
    24,'ODESSA 6 0  ', 115.0000,1,   1,   9,   1,0.98375, -24.1806,1.10000,0.90000,1.10000,0.90000
    25,'BIG SPRIN~14', 115.0000,1,   1,   9,   1,1.00232, -18.9699,1.10000,0.90000,1.10000,0.90000
    26,'BIG SPRIN~15',  13.8000,2,   1,   9,   1,1.00000,  -9.3259,1.10000,0.90000,1.10000,0.90000
    27,'MIDLAND 2 0 ', 115.0000,1,   1,   9,   1,0.89795, -30.3626,1.10000,0.90000,1.10000,0.90000
    28,'COAHOMA 0   ', 115.0000,1,   1,   9,   1,1.01367, -23.4653,1.10000,0.90000,1.10000,0.90000
    29,'MIDLAND 3 0 ', 115.0000,1,   1,   9,   1,0.91245, -29.5751,1.10000,0.90000,1.10000,0.90000
    30,'ALPINE 0    ', 115.0000,1,   1,   9,   1,0.99065, -17.4522,1.10000,0.90000,1.10000,0.90000
    31,'FORT DAVIS 0', 115.0000,1,   1,   9,   1,0.99301, -22.2347,1.10000,0.90000,1.10000,0.90000
    32,'MCCAMEY 1 0 ', 115.0000,1,   1,   9,   1,0.98410, -16.2524,1.10000,0.90000,1.10000,0.90000
    33,'MCCAMEY 1 1 ', 230.0000,2,   1,   9,   1,1.00000, -21.1487,1.10000,0.90000,1.10000,0.90000
    34,'BIG SPRING~6', 115.0000,1,   1,   9,   1,0.98433, -18.7205,1.10000,0.90000,1.10000,0.90000
    35,'BIG SPRING~7',  13.8000,2,   1,   9,   1,1.00000, -15.4236,1.10000,0.90000,1.10000,0.90000
    36,'CRANE 0     ', 115.0000,1,   1,   9,   1,0.98930, -16.6773,1.10000,0.90000,1.10000,0.90000
    37,'ODESSA 5 0  ', 115.0000,1,   1,   9,   1,0.94239, -27.4868,1.10000,0.90000,1.10000,0.90000
    38,'FORT STOCK~1', 115.0000,1,   1,   9,   1,0.99789, -11.3376,1.10000,0.90000,1.10000,0.90000
    39,'FORT STOCK~2',  22.0000,2,   1,   9,   1,1.00000,  -5.8782,1.10000,0.90000,1.10000,0.90000
    40,'ANDREWS 0   ', 115.0000,1,   1,   9,   1,0.97682, -25.4445,1.10000,0.90000,1.10000,0.90000
    41,'FORSAN 0    ', 115.0000,1,   1,   9,   1,0.97870, -19.5240,1.10000,0.90000,1.10000,0.90000
    42,'FORSAN 1    ',  13.8000,2,   1,   9,   1,0.97870, -19.5240,1.10000,0.90000,1.10000,0.90000
    43,'FORSAN 2    ',  13.8000,2,   1,   9,   1,1.00000, -16.2357,1.10000,0.90000,1.10000,0.90000
    44,'BIG LAKE 0  ', 115.0000,1,   1,   9,   1,0.96787, -30.9474,1.10000,0.90000,1.10000,0.90000
    45,'MIDLAND 5 0 ', 115.0000,1,   1,   9,   1,0.92608, -29.3922,1.10000,0.90000,1.10000,0.90000
    46,'OZONA 0     ', 115.0000,1,   1,   9,   1,0.92950, -26.0834,1.10000,0.90000,1.10000,0.90000
    47,'MONAHANS 1 0', 115.0000,1,   1,   9,   1,0.99029, -17.8574,1.10000,0.90000,1.10000,0.90000
    48,'MONAHANS 1 1',  18.0000,2,   1,   9,   1,0.99029, -17.8574,1.10000,0.90000,1.10000,0.90000
    49,'MONAHANS 1 2',  18.0000,2,   1,   9,   1,0.99029, -17.8574,1.10000,0.90000,1.10000,0.90000
    50,'MONAHANS 1 3',  18.0000,2,   1,   9,   1,1.00000, -12.7429,1.10000,0.90000,1.10000,0.90000
    51,'MONAHANS 1 4',  18.0000,2,   1,   9,   1,1.00000, -11.2536,1.10000,0.90000,1.10000,0.90000
    52,'MONAHANS 1 5',  18.0000,2,   1,   9,   1,1.00000, -13.6166,1.10000,0.90000,1.10000,0.90000
    53,'MONAHANS 1 6', 230.0000,2,   1,   9,   1,0.99382, -21.8860,1.10000,0.90000,1.10000,0.90000
    54,'STANTON 0   ', 115.0000,1,   1,   9,   1,0.93519, -26.9123,1.10000,0.90000,1.10000,0.90000
    55,'ODONNELL 0  ', 115.0000,1,   1,   9,   1,0.98745, -23.7129,1.10000,0.90000,1.10000,0.90000
    56,'LENORAH 0   ', 115.0000,1,   1,   9,   1,0.93694, -26.1761,1.10000,0.90000,1.10000,0.90000
    57,'LENORAH 1   ',  18.0000,2,   1,   9,   1,0.93694, -26.1761,1.10000,0.90000,1.10000,0.90000
    58,'IRAAN 3 0   ', 115.0000,1,   1,   9,   1,0.98569, -14.5254,1.10000,0.90000,1.10000,0.90000
    59,'IRAAN 3 1   ',  22.0000,2,   1,   9,   1,0.98569, -14.5254,1.10000,0.90000,1.10000,0.90000
    60,'IRAAN 3 2   ',  22.0000,2,   1,   9,   1,0.98569, -14.5254,1.10000,0.90000,1.10000,0.90000
    61,'BIG SPRIN~10', 115.0000,1,   1,   9,   1,0.97481, -21.7413,1.10000,0.90000,1.10000,0.90000
    62,'BIG SPRIN~11',  13.8000,2,   1,   9,   1,0.97481, -21.7413,1.10000,0.90000,1.10000,0.90000
    63,'BIG SPRIN~12',  13.8000,2,   1,   9,   1,0.97481, -21.7413,1.10000,0.90000,1.10000,0.90000
    64,'ODESSA 3 0  ', 115.0000,1,   1,   9,   1,0.93334, -29.1766,1.10000,0.90000,1.10000,0.90000
    65,'BIG SPRING~4', 115.0000,1,   1,   9,   1,0.97676, -19.2615,1.10000,0.90000,1.10000,0.90000
    66,'BIG SPRING~5',  13.8000,2,   1,   9,   1,1.00000, -11.5820,1.10000,0.90000,1.10000,0.90000
    67,'BIG SPRIN~13', 115.0000,1,   1,   9,   1,0.97584, -20.1571,1.10000,0.90000,1.10000,0.90000
    68,'MIDLAND 1 0 ', 115.0000,1,   1,   9,   1,0.96525, -20.7677,1.10000,0.90000,1.10000,0.90000
    69,'IRAAN 1 0   ', 115.0000,1,   1,   9,   1,1.00070, -12.1111,1.10000,0.90000,1.10000,0.90000
    70,'IRAAN 1 1   ',  13.8000,2,   1,   9,   1,1.04000,  -7.5619,1.10000,0.90000,1.10000,0.90000
    71,'ODESSA 1 0  ', 115.0000,1,   1,   9,   1,0.95980, -26.4004,1.10000,0.90000,1.10000,0.90000
    72,'ODESSA 1 1  ',  18.0000,2,   1,   9,   1,1.01000, -16.8706,1.10000,0.90000,1.10000,0.90000
    73,'ODESSA 1 2  ',  18.0000,2,   1,   9,   1,1.01000, -10.2091,1.10000,0.90000,1.10000,0.90000
    74,'ODESSA 1 3  ',  18.0000,2,   1,   9,   1,1.01000, -12.3455,1.10000,0.90000,1.10000,0.90000
    75,'ODESSA 1 4  ',  18.0000,2,   1,   9,   1,1.01000, -15.1795,1.10000,0.90000,1.10000,0.90000
    76,'ODESSA 1 5  ',  18.0000,2,   1,   9,   1,0.95980, -26.4004,1.10000,0.90000,1.10000,0.90000
    77,'ODESSA 1 6  ',  18.0000,2,   1,   9,   1,0.95980, -26.4004,1.10000,0.90000,1.10000,0.90000
    78,'ODESSA 1 7  ',  18.0000,2,   1,   9,   1,1.01000, -15.6979,1.10000,0.90000,1.10000,0.90000
    79,'ODESSA 1 8  ', 500.0000,2,   1,   9,   1,1.01000, -44.2299,1.10000,0.90000,1.10000,0.90000
    80,'ODESSA 1 9  ',  18.0000,2,   1,   9,   1,1.01000, -15.1579,1.10000,0.90000,1.10000,0.90000
    81,'ODESSA 1 10 ', 230.0000,2,   1,   9,   1,0.99350, -23.2589,1.10000,0.90000,1.10000,0.90000
    82,'FORT STOCK~3', 115.0000,2,   1,   9,   1,1.00000,  -9.4142,1.10000,0.90000,1.10000,0.90000
    83,'FORT STOCK~4', 115.0000,1,   1,   9,   1,0.98954, -13.6307,1.10000,0.90000,1.10000,0.90000
    84,'BIG SPRING~3', 115.0000,2,   1,   9,   1,1.04000, -21.7393,1.10000,0.90000,1.10000,0.90000
    85,'KERMIT 0    ', 115.0000,1,   1,   9,   1,0.99047, -19.9522,1.10000,0.90000,1.10000,0.90000
    86,'PECOS 0     ', 115.0000,1,   1,   9,   1,0.96877, -21.8504,1.10000,0.90000,1.10000,0.90000
    87,'SHEFFIELD 0 ', 115.0000,1,   1,   9,   1,0.96096, -19.4332,1.10000,0.90000,1.10000,0.90000
    88,'MCCAMEY 2 0 ', 115.0000,2,   1,   9,   1,1.00000, -16.1979,1.10000,0.90000,1.10000,0.90000
    89,'LAMESA 0    ', 115.0000,1,   1,   9,   1,0.94622, -26.6155,1.10000,0.90000,1.10000,0.90000
    90,'GOLDSMITH 0 ', 115.0000,2,   1,   9,   1,1.02000, -21.1640,1.10000,0.90000,1.10000,0.90000
    91,'RALLS 2 0   ', 161.0000,1,   1,   9,   1,1.02683, -36.5983,1.10000,0.90000,1.10000,0.90000
    92,'PARIS 3 0   ', 161.0000,1,   2,  11,   1,0.98768, -65.9771,1.10000,0.90000,1.10000,0.90000
    93,'SAVOY 0     ', 500.0000,1,   2,  11,   1,0.98932, -67.5346,1.10000,0.90000,1.10000,0.90000
    94,'SAVOY 1     ', 161.0000,1,   2,  11,   1,0.97611, -69.8956,1.10000,0.90000,1.10000,0.90000
    95,'SAVOY 2     ',  13.8000,2,   2,  11,   1,0.98932, -67.5346,1.10000,0.90000,1.10000,0.90000
    96,'SAVOY 3     ',  13.8000,2,   2,  11,   1,0.98932, -67.5346,1.10000,0.90000,1.10000,0.90000
    97,'SAVOY 4     ',  13.8000,2,   2,  11,   1,0.98932, -67.5346,1.10000,0.90000,1.10000,0.90000
    98,'HONEY GROV~1', 161.0000,1,   2,  11,   1,0.98614, -65.7263,1.10000,0.90000,1.10000,0.90000
    99,'MEMPHIS 0   ', 161.0000,1,   2,  10,   1,1.00665, -38.3440,1.10000,0.90000,1.10000,0.90000
   100,'IOWA PARK 0 ', 161.0000,1,   2,  11,   1,0.97889, -50.3259,1.10000,0.90000,1.10000,0.90000
   101,'VERNON 2 0  ', 161.0000,1,   2,  10,   1,0.99825, -41.5565,1.10000,0.90000,1.10000,0.90000
   102,'PANHANDLE ~2', 500.0000,1,   2,  10,   1,1.02829, -37.5745,1.10000,0.90000,1.10000,0.90000
   103,'PANHANDLE ~3', 161.0000,1,   2,  10,   1,1.01253, -35.2760,1.10000,0.90000,1.10000,0.90000
   104,'PANHANDLE ~4',  18.0000,2,   2,  10,   1,1.00000, -35.1220,1.10000,0.90000,1.10000,0.90000
   105,'CHILDRESS 0 ', 161.0000,1,   2,  10,   1,1.00818, -38.9480,1.10000,0.90000,1.10000,0.90000
   106,'FORESTBURG 0', 161.0000,1,   2,  11,   1,0.95129, -69.0252,1.10000,0.90000,1.10000,0.90000
   107,'SHERMAN 3 0 ', 161.0000,1,   2,  11,   1,0.93139, -76.2141,1.10000,0.90000,1.10000,0.90000
   108,'PANHANDLE ~7', 500.0000,1,   2,  10,   1,1.04815, -37.8992,1.10000,0.90000,1.10000,0.90000
   109,'PANHANDLE ~8', 161.0000,1,   2,  10,   1,1.03449, -37.1373,1.10000,0.90000,1.10000,0.90000
   110,'PANHANDLE ~9',  20.0000,2,   2,  10,   1,1.04815, -37.8992,1.10000,0.90000,1.10000,0.90000
   111,'WICHITA F~12', 161.0000,1,   2,  11,   1,0.98344, -50.3768,1.10000,0.90000,1.10000,0.90000
   112,'PARIS 2 0   ', 500.0000,1,   2,  11,   1,1.00362, -62.6123,1.10000,0.90000,1.10000,0.90000
   113,'PARIS 2 1   ', 161.0000,1,   2,  11,   1,0.99702, -64.6012,1.10000,0.90000,1.10000,0.90000
   114,'PARIS 2 2   ',  13.8000,2,   2,  11,   1,1.02000, -61.0428,1.10000,0.90000,1.10000,0.90000
   115,'PARIS 2 3   ',  13.8000,2,   2,  11,   1,1.02000, -60.3700,1.10000,0.90000,1.10000,0.90000
   116,'WICHITA F~10', 161.0000,1,   2,  11,   1,0.98584, -49.6427,1.10000,0.90000,1.10000,0.90000
   117,'WHEELER 0   ', 161.0000,1,   2,  10,   1,1.01432, -36.5366,1.10000,0.90000,1.10000,0.90000
   118,'DEPORT 0    ', 161.0000,1,   2,  11,   1,0.98709, -66.4143,1.10000,0.90000,1.10000,0.90000
   119,'WICHITA FA~9', 161.0000,1,   2,  11,   1,0.97258, -52.6749,1.10000,0.90000,1.10000,0.90000
   120,'SILVERTON 0 ', 161.0000,1,   2,  10,   1,1.01636, -38.3309,1.10000,0.90000,1.10000,0.90000
   121,'BONHAM 0    ', 161.0000,1,   2,  11,   1,0.96170, -70.1319,1.10000,0.90000,1.10000,0.90000
   122,'MATADOR 0   ', 161.0000,1,   2,  10,   1,1.01897, -35.0789,1.10000,0.90000,1.10000,0.90000
   123,'ARTHUR CIT~1', 161.0000,1,   2,  11,   1,0.98938, -65.1041,1.10000,0.90000,1.10000,0.90000
   124,'LEONARD 0   ', 161.0000,1,   2,  11,   1,0.95873, -71.6808,1.10000,0.90000,1.10000,0.90000
   125,'GORDONVILL~1', 161.0000,1,   2,  11,   1,0.93524, -75.5387,1.10000,0.90000,1.10000,0.90000
   126,'KNOX CITY 0 ', 161.0000,1,   2,  10,   1,1.00772, -35.8667,1.10000,0.90000,1.10000,0.90000
   127,'WICHITA F~13', 161.0000,1,   2,  11,   1,0.98503, -49.9336,1.10000,0.90000,1.10000,0.90000
   128,'LINDSAY 0   ', 161.0000,1,   2,  11,   1,0.95528, -69.2910,1.10000,0.90000,1.10000,0.90000
   129,'ECTOR 0     ', 161.0000,1,   2,  11,   1,0.97265, -70.3849,1.10000,0.90000,1.10000,0.90000
   130,'SUNSET 0    ', 161.0000,1,   2,  11,   1,0.95416, -66.4058,1.10000,0.90000,1.10000,0.90000
   131,'CLARKSVILL~1', 161.0000,1,   2,  11,   1,0.99368, -65.2832,1.10000,0.90000,1.10000,0.90000
   132,'PANHANDLE ~5', 161.0000,1,   2,  10,   1,1.01192, -32.9967,1.10000,0.90000,1.10000,0.90000
   133,'PANHANDLE ~6',  18.0000,2,   2,  10,   1,1.01000, -30.3665,1.10000,0.90000,1.10000,0.90000
   134,'SADLER 0    ', 161.0000,1,   2,  11,   1,0.93345, -75.8492,1.10000,0.90000,1.10000,0.90000
   135,'WHITESBORO 0', 161.0000,1,   2,  11,   1,0.95591, -71.3080,1.10000,0.90000,1.10000,0.90000
   136,'SHEPPARD A~1', 161.0000,1,   2,  11,   1,0.98061, -50.8988,1.10000,0.90000,1.10000,0.90000
   137,'POTTSBORO 0 ', 161.0000,1,   2,  11,   1,0.93759, -75.1412,1.10000,0.90000,1.10000,0.90000
   138,'BELLS 0     ', 161.0000,1,   2,  11,   1,0.96913, -70.8185,1.10000,0.90000,1.10000,0.90000
   139,'CROSBYTON 0 ', 161.0000,1,   2,  10,   1,1.01999, -37.1413,1.10000,0.90000,1.10000,0.90000
   140,'ELECTRA 0   ', 161.0000,1,   2,  10,   1,0.99300, -46.0345,1.10000,0.90000,1.10000,0.90000
   141,'PATTONVILL~1', 161.0000,1,   2,  11,   1,0.97198, -69.3087,1.10000,0.90000,1.10000,0.90000
   142,'HENRIETTA 0 ', 161.0000,1,   2,  11,   1,0.95843, -59.6484,1.10000,0.90000,1.10000,0.90000
   143,'PANHANDLE~13', 161.0000,1,   2,  10,   1,1.00540, -37.4407,1.10000,0.90000,1.10000,0.90000
   144,'BOWIE 0     ', 161.0000,1,   2,  11,   1,0.96796, -65.1222,1.10000,0.90000,1.10000,0.90000
   145,'WICHITA FA~1', 500.0000,1,   2,  11,   1,0.99212, -48.6355,1.10000,0.90000,1.10000,0.90000
   146,'WICHITA FA~2', 161.0000,1,   2,  11,   1,0.98846, -49.4674,1.10000,0.90000,1.10000,0.90000
   147,'WICHITA FA~3',  18.0000,2,   2,  11,   1,0.99212, -48.6355,1.10000,0.90000,1.10000,0.90000
   148,'WICHITA FA~4',  18.0000,2,   2,  11,   1,0.99000, -44.2105,1.10000,0.90000,1.10000,0.90000
   149,'WHITE DEER 0', 161.0000,1,   2,  10,   1,1.00568, -32.4532,1.10000,0.90000,1.10000,0.90000
   150,'WHITE DEER 1',  13.8000,2,   2,  10,   1,1.00000, -28.9823,1.10000,0.90000,1.10000,0.90000
   151,'ROXTON 0    ', 161.0000,1,   2,  11,   1,0.97705, -67.9803,1.10000,0.90000,1.10000,0.90000
   152,'VERNON 1 0  ', 161.0000,1,   2,  10,   1,1.00856, -42.5775,1.10000,0.90000,1.10000,0.90000
   153,'VERNON 1 1  ',  18.0000,2,   2,  10,   1,1.02000, -40.2799,1.10000,0.90000,1.10000,0.90000
   154,'DENISON 2 0 ', 161.0000,1,   2,  11,   1,0.94173, -74.4501,1.10000,0.90000,1.10000,0.90000
   155,'SUMNER 0    ', 161.0000,1,   2,  11,   1,0.98662, -66.2677,1.10000,0.90000,1.10000,0.90000
   156,'GAINESVILL~1', 161.0000,1,   2,  11,   1,0.94618, -71.3670,1.10000,0.90000,1.10000,0.90000
   157,'ASPERMONT 0 ', 161.0000,1,   2,  10,   1,1.01248, -33.0210,1.10000,0.90000,1.10000,0.90000
   158,'WICHITA F~11', 161.0000,1,   2,  11,   1,0.98503, -49.5779,1.10000,0.90000,1.10000,0.90000
   159,'WINDTHORST 0', 161.0000,1,   2,  11,   1,0.99555, -47.5635,1.10000,0.90000,1.10000,0.90000
   160,'HOWE 0      ', 161.0000,1,   2,  11,   1,0.94221, -75.1516,1.10000,0.90000,1.10000,0.90000
   161,'ARCHER 2 0  ', 161.0000,1,   2,  11,   1,0.99874, -47.1540,1.10000,0.90000,1.10000,0.90000
   162,'ARCHER 2 1  ',  18.0000,2,   2,  11,   1,1.00000, -43.4700,1.10000,0.90000,1.10000,0.90000
   163,'COLLINSVIL~1', 161.0000,1,   2,  11,   1,0.95506, -73.2469,1.10000,0.90000,1.10000,0.90000
   164,'JAYTON 0    ', 161.0000,1,   2,  10,   1,1.01770, -30.5884,1.10000,0.90000,1.10000,0.90000
   165,'JAYTON 1    ', 115.0000,1,   2,  10,   1,1.00264, -28.6578,1.10000,0.90000,1.10000,0.90000
   166,'JAYTON 2    ', 115.0000,1,   2,  10,   1,1.00264, -28.6578,1.10000,0.90000,1.10000,0.90000
   167,'JAYTON 3    ',  24.0000,2,   2,  10,   1,1.04000, -29.7457,1.10000,0.90000,1.10000,0.90000
   168,'MUENSTER 1 0', 161.0000,1,   2,  11,   1,0.97220, -66.8010,1.10000,0.90000,1.10000,0.90000
   169,'MUENSTER 1 1',  13.8000,2,   2,  11,   1,1.02000, -63.3975,1.10000,0.90000,1.10000,0.90000
   170,'PADUCAH 0   ', 161.0000,1,   2,  10,   1,1.00803, -39.8775,1.10000,0.90000,1.10000,0.90000
   171,'NOCONA 0    ', 161.0000,1,   2,  11,   1,0.95864, -63.0784,1.10000,0.90000,1.10000,0.90000
   172,'DODD CITY 0 ', 161.0000,1,   2,  11,   1,0.96649, -71.2190,1.10000,0.90000,1.10000,0.90000
   173,'WICHITA FA~5', 161.0000,1,   2,  11,   1,0.98348, -50.2135,1.10000,0.90000,1.10000,0.90000
   174,'WICHITA FA~6',  20.0000,2,   2,  11,   1,1.02000, -48.6423,1.10000,0.90000,1.10000,0.90000
   175,'WICHITA FA~7',  20.0000,2,   2,  11,   1,0.98348, -50.2135,1.10000,0.90000,1.10000,0.90000
   176,'WICHITA FA~8',  20.0000,2,   2,  11,   1,0.98348, -50.2135,1.10000,0.90000,1.10000,0.90000
   177,'MONTAGUE 0  ', 161.0000,1,   2,  11,   1,0.95573, -65.1500,1.10000,0.90000,1.10000,0.90000
   178,'SPUR 0      ', 161.0000,1,   2,  10,   1,1.01783, -32.9296,1.10000,0.90000,1.10000,0.90000
   179,'ARCHER 1 0  ', 161.0000,1,   2,  11,   1,0.99715, -47.2669,1.10000,0.90000,1.10000,0.90000
   180,'ARCHER 1 1  ',  24.0000,2,   2,  11,   1,1.00000, -43.6570,1.10000,0.90000,1.10000,0.90000
   181,'ANNONA 0    ', 161.0000,1,   2,  11,   1,0.98559, -67.0446,1.10000,0.90000,1.10000,0.90000
   182,'SEYMOUR 0   ', 161.0000,1,   2,  10,   1,1.00160, -39.2122,1.10000,0.90000,1.10000,0.90000
   183,'DENISON 1 0 ', 161.0000,1,   2,  11,   1,0.95434, -72.6984,1.10000,0.90000,1.10000,0.90000
   184,'PANHANDLE~10', 161.0000,1,   2,  10,   1,1.02326, -36.1669,1.10000,0.90000,1.10000,0.90000
   185,'PANHANDLE~11',  13.8000,2,   2,  10,   1,1.02326, -36.1669,1.10000,0.90000,1.10000,0.90000
   186,'PANHANDLE~12',  13.8000,2,   2,  10,   1,1.02326, -36.1669,1.10000,0.90000,1.10000,0.90000
   187,'RALLS 1 0   ', 500.0000,1,   2,  10,   1,1.03883, -33.6097,1.10000,0.90000,1.10000,0.90000
   188,'RALLS 1 1   ', 230.0000,1,   2,  10,   1,1.03580, -33.0556,1.10000,0.90000,1.10000,0.90000
   189,'RALLS 1 2   ', 161.0000,1,   2,  10,   1,1.02987, -36.0532,1.10000,0.90000,1.10000,0.90000
   190,'RALLS 1 3   ',  18.0000,2,   2,  10,   1,1.02000, -33.4598,1.10000,0.90000,1.10000,0.90000
   191,'RALLS 1 4   ',  18.0000,2,   2,  10,   1,1.02000, -31.0145,1.10000,0.90000,1.10000,0.90000
   192,'SHERMAN 1 0 ', 500.0000,1,   2,  11,   1,0.98739, -68.6742,1.10000,0.90000,1.10000,0.90000
   193,'SHERMAN 1 1 ', 161.0000,1,   2,  11,   1,0.97793, -70.1908,1.10000,0.90000,1.10000,0.90000
   194,'SHERMAN 1 2 ',  20.0000,2,   2,  11,   1,0.98739, -68.6742,1.10000,0.90000,1.10000,0.90000
   195,'SHERMAN 1 3 ',  20.0000,2,   2,  11,   1,0.98739, -68.6742,1.10000,0.90000,1.10000,0.90000
   196,'SHERMAN 1 4 ',  20.0000,2,   2,  11,   1,0.98739, -68.6742,1.10000,0.90000,1.10000,0.90000
   197,'WHITEWRIGH~1', 161.0000,1,   2,  11,   1,0.95447, -72.3539,1.10000,0.90000,1.10000,0.90000
   198,'SHERMAN 2 0 ', 161.0000,1,   2,  11,   1,0.97111, -71.1147,1.10000,0.90000,1.10000,0.90000
   199,'ROCHESTER 0 ', 161.0000,1,   2,  10,   1,0.97437, -49.2547,1.10000,0.90000,1.10000,0.90000
   200,'BURKBURNET~1', 161.0000,1,   2,  11,   1,0.97308, -51.6290,1.10000,0.90000,1.10000,0.90000
   201,'MUENSTER 2 0', 161.0000,1,   2,  11,   1,0.96470, -67.8631,1.10000,0.90000,1.10000,0.90000
   202,'ARCHER CIT~1', 161.0000,1,   2,  11,   1,0.98016, -54.6629,1.10000,0.90000,1.10000,0.90000
   203,'PETROLIA 0  ', 161.0000,1,   2,  11,   1,0.96686, -54.8181,1.10000,0.90000,1.10000,0.90000
   204,'PARIS 1 0   ', 500.0000,1,   2,  11,   1,1.00402, -62.1399,1.10000,0.90000,1.10000,0.90000
   205,'PARIS 1 1   ', 161.0000,1,   2,  11,   1,0.99982, -63.4611,1.10000,0.90000,1.10000,0.90000
   206,'PARIS 1 2   ',  13.8000,2,   2,  11,   1,1.00000, -58.0935,1.10000,0.90000,1.10000,0.90000
   207,'PARIS 1 3   ',  13.8000,2,   2,  11,   1,1.00000, -60.0310,1.10000,0.90000,1.10000,0.90000
   208,'PARIS 1 4   ',  13.8000,2,   2,  11,   1,1.00000, -57.4561,1.10000,0.90000,1.10000,0.90000
   209,'PARIS 1 5   ',  13.8000,2,   2,  11,   1,1.00000, -56.9518,1.10000,0.90000,1.10000,0.90000
   210,'PARIS 1 6   ',  13.8000,2,   2,  11,   1,1.00000, -59.5734,1.10000,0.90000,1.10000,0.90000
   211,'PARIS 1 7   ',  13.8000,2,   2,  11,   1,1.01000, -57.2118,1.10000,0.90000,1.10000,0.90000
   212,'BAGWELL 0   ', 161.0000,1,   2,  11,   1,0.99125, -65.9289,1.10000,0.90000,1.10000,0.90000
   213,'TELEPHONE 0 ', 161.0000,1,   2,  11,   1,0.97657, -67.1356,1.10000,0.90000,1.10000,0.90000
   214,'PANHANDLE ~1', 161.0000,2,   2,  10,   1,1.00000, -32.1342,1.10000,0.90000,1.10000,0.90000
   215,'VAN ALSTYN~1', 161.0000,1,   2,  11,   1,0.95017, -73.4946,1.10000,0.90000,1.10000,0.90000
   216,'TIOGA 0     ', 161.0000,1,   2,  11,   1,0.95230, -73.5828,1.10000,0.90000,1.10000,0.90000
   217,'VALLEY VIE~1', 161.0000,1,   2,  11,   1,0.93792, -72.9944,1.10000,0.90000,1.10000,0.90000
   218,'MIAMI 0     ', 500.0000,2,   2,  10,   1,1.04000, -39.5111,1.10000,0.90000,1.10000,0.90000
   219,'MIAMI 1     ', 161.0000,1,   2,  10,   1,1.02348, -38.0195,1.10000,0.90000,1.10000,0.90000
   220,'TRENTON 0   ', 161.0000,1,   2,  11,   1,0.95674, -72.2552,1.10000,0.90000,1.10000,0.90000
   221,'HASKELL 0   ', 161.0000,1,   2,  10,   1,0.97364, -47.8162,1.10000,0.90000,1.10000,0.90000
   222,'HASKELL 1   ', 115.0000,1,   2,  10,   1,0.96376, -45.1715,1.10000,0.90000,1.10000,0.90000
   223,'HASKELL 2   ', 115.0000,1,   2,  10,   1,0.95356, -47.0386,1.10000,0.90000,1.10000,0.90000
   224,'SAINT JO 0  ', 161.0000,1,   2,  11,   1,0.96911, -66.1199,1.10000,0.90000,1.10000,0.90000
   225,'KERRVILLE 0 ', 230.0000,1,   3,  28,   1,0.94086, -61.5639,1.10000,0.90000,1.10000,0.90000
   226,'KERRVILLE 1 ', 115.0000,1,   3,  28,   1,0.92789, -64.4324,1.10000,0.90000,1.10000,0.90000
   227,'SWEETWATER~4', 115.0000,1,   3,  27,   1,0.99943, -23.4703,1.10000,0.90000,1.10000,0.90000
   228,'SWEETWATER~5',  18.0000,2,   3,  27,   1,1.00000, -21.8408,1.10000,0.90000,1.10000,0.90000
   229,'LEAKEY 0    ', 115.0000,1,   3,  28,   1,0.93717, -64.3968,1.10000,0.90000,1.10000,0.90000
   230,'HAMLIN 0    ', 115.0000,1,   3,  27,   1,0.97817, -32.1380,1.10000,0.90000,1.10000,0.90000
   231,'MERKEL 3 0  ', 115.0000,1,   3,  27,   1,1.00904, -30.2141,1.10000,0.90000,1.10000,0.90000
   232,'COLEMAN 0   ', 115.0000,1,   3,  27,   1,0.91961, -42.6345,1.10000,0.90000,1.10000,0.90000
   233,'SONORA 0    ', 115.0000,1,   3,  28,   1,0.90747, -35.9342,1.10000,0.90000,1.10000,0.90000
   234,'CAMP WOOD 0 ', 115.0000,1,   3,  28,   1,0.95459, -63.9644,1.10000,0.90000,1.10000,0.90000
   235,'LLANO 0     ', 115.0000,1,   3,  28,   1,0.90077, -67.7744,1.10000,0.90000,1.10000,0.90000
   236,'WILLOW CIT~1', 115.0000,1,   3,  28,   1,0.90541, -67.3162,1.10000,0.90000,1.10000,0.90000
   237,'ABILENE 4 0 ', 115.0000,1,   3,  27,   1,0.97464, -33.7384,1.10000,0.90000,1.10000,0.90000
   238,'KINGSLAND 0 ', 115.0000,1,   3,  28,   1,0.96946, -59.0183,1.10000,0.90000,1.10000,0.90000
   239,'ROSCOE 6 0  ', 115.0000,1,   3,  27,   1,0.99921, -22.2847,1.10000,0.90000,1.10000,0.90000
   240,'BLACKWELL 0 ', 115.0000,1,   3,  27,   1,0.99965, -27.3292,1.10000,0.90000,1.10000,0.90000
   241,'BLACKWELL 1 ',  18.0000,2,   3,  27,   1,1.01000, -22.0901,1.10000,0.90000,1.10000,0.90000
   242,'CHRISTOVAL 0', 230.0000,1,   3,  27,   1,0.97215, -34.0644,1.10000,0.90000,1.10000,0.90000
   243,'CHRISTOVAL 1', 115.0000,1,   3,  27,   1,0.95196, -35.8601,1.10000,0.90000,1.10000,0.90000
   244,'CHRISTOVAL 2',  13.8000,2,   3,  27,   1,1.03000, -29.7649,1.10000,0.90000,1.10000,0.90000
   245,'LUEDERS 0   ', 115.0000,1,   3,  27,   1,0.97227, -41.1552,1.10000,0.90000,1.10000,0.90000
   246,'COLORADO C~1', 115.0000,1,   3,  27,   1,0.99092, -23.5538,1.10000,0.90000,1.10000,0.90000
   247,'STAMFORD 0  ', 115.0000,1,   3,  27,   1,0.97744, -31.9135,1.10000,0.90000,1.10000,0.90000
   248,'ELDORADO 0  ', 115.0000,1,   3,  28,   1,0.93614, -36.2261,1.10000,0.90000,1.10000,0.90000
   249,'SAN SABA 0  ', 115.0000,1,   3,  28,   1,0.93288, -51.6054,1.10000,0.90000,1.10000,0.90000
   250,'ABILENE 2 0 ', 230.0000,1,   3,  27,   1,1.02435, -42.5196,1.10000,0.90000,1.10000,0.90000
   251,'ABILENE 2 1 ', 115.0000,1,   3,  27,   1,0.99214, -43.2273,1.10000,0.90000,1.10000,0.90000
   252,'ABILENE 2 2 ',  18.0000,2,   3,  27,   1,1.04000, -39.9279,1.10000,0.90000,1.10000,0.90000
   253,'LOMETA 0    ', 115.0000,1,   3,  28,   1,0.98260, -59.2194,1.10000,0.90000,1.10000,0.90000
   254,'SAN ANGELO~1', 115.0000,1,   3,  27,   1,0.85429, -46.2083,1.10000,0.90000,1.10000,0.90000
   255,'TUSCOLA 0   ', 115.0000,1,   3,  27,   1,0.98075, -31.5264,1.10000,0.90000,1.10000,0.90000
   256,'ABILENE 7 0 ', 115.0000,1,   3,  27,   1,0.98773, -32.5377,1.10000,0.90000,1.10000,0.90000
   257,'SNYDER 1 0  ', 115.0000,1,   3,  27,   1,1.00491, -20.4871,1.10000,0.90000,1.10000,0.90000
   258,'SNYDER 1 1  ',  22.0000,2,   3,  27,   1,1.03000, -11.1917,1.10000,0.90000,1.10000,0.90000
   259,'CHEROKEE 0  ', 115.0000,1,   3,  28,   1,0.91835, -50.7477,1.10000,0.90000,1.10000,0.90000
   260,'RICHLAND S~1', 115.0000,1,   3,  28,   1,0.91577, -47.6730,1.10000,0.90000,1.10000,0.90000
   261,'ROSCOE 2 0  ', 230.0000,1,   3,  27,   1,1.02350, -31.1925,1.10000,0.90000,1.10000,0.90000
   262,'ROSCOE 2 1  ', 115.0000,1,   3,  27,   1,0.99926, -25.6258,1.10000,0.90000,1.10000,0.90000
   263,'ROSCOE 2 2  ',  13.8000,2,   3,  27,   1,1.04000, -28.6093,1.10000,0.90000,1.10000,0.90000
   264,'BALLINGER 0 ', 115.0000,1,   3,  27,   1,0.89231, -39.6779,1.10000,0.90000,1.10000,0.90000
   265,'SILVER 0    ', 230.0000,1,   3,  27,   1,1.01186, -34.8541,1.10000,0.90000,1.10000,0.90000
   266,'SILVER 1    ', 115.0000,1,   3,  27,   1,0.98505, -23.9637,1.10000,0.90000,1.10000,0.90000
   267,'SILVER 2    ',  13.8000,2,   3,  27,   1,1.01186, -34.8541,1.10000,0.90000,1.10000,0.90000
   268,'SILVER 3    ',  13.8000,2,   3,  27,   1,1.01186, -34.8541,1.10000,0.90000,1.10000,0.90000
   269,'SILVER 4    ',  13.8000,2,   3,  27,   1,1.01186, -34.8541,1.10000,0.90000,1.10000,0.90000
   270,'ROSCOE 5 0  ', 230.0000,1,   3,  27,   1,1.01276, -40.5161,1.10000,0.90000,1.10000,0.90000
   271,'ROSCOE 5 1  ', 115.0000,1,   3,  27,   1,0.97898, -25.4771,1.10000,0.90000,1.10000,0.90000
   272,'ROSCOE 5 2  ', 500.0000,2,   3,  27,   1,1.04000, -47.4167,1.10000,0.90000,1.10000,0.90000
   273,'ANSON 0     ', 115.0000,1,   3,  27,   1,0.96952, -35.2530,1.10000,0.90000,1.10000,0.90000
   274,'DEL RIO 0   ', 230.0000,1,   3,  28,   1,0.91615, -38.8558,1.10000,0.90000,1.10000,0.90000
   275,'DEL RIO 1   ', 115.0000,1,   3,  28,   1,0.88747, -41.3686,1.10000,0.90000,1.10000,0.90000
   276,'HUNT 0      ', 115.0000,1,   3,  28,   1,0.93316, -65.0823,1.10000,0.90000,1.10000,0.90000
   277,'WINGATE 0   ', 230.0000,1,   3,  27,   1,1.02287, -32.7216,1.10000,0.90000,1.10000,0.90000
   278,'WINGATE 1   ', 115.0000,1,   3,  27,   1,0.99351, -32.1462,1.10000,0.90000,1.10000,0.90000
   279,'WINGATE 2   ',  13.8000,2,   3,  27,   1,1.04000, -29.8260,1.10000,0.90000,1.10000,0.90000
   280,'WINGATE 3   ',  13.8000,2,   3,  27,   1,1.04000, -27.2267,1.10000,0.90000,1.10000,0.90000
   281,'WINGATE 4   ',  13.8000,2,   3,  27,   1,1.04000, -27.3966,1.10000,0.90000,1.10000,0.90000
   282,'STERLING C~1', 230.0000,1,   3,  27,   1,1.02139, -29.3348,1.10000,0.90000,1.10000,0.90000
   283,'STERLING C~2', 115.0000,1,   3,  27,   1,0.99603, -22.4064,1.10000,0.90000,1.10000,0.90000
   284,'STERLING C~3',  18.0000,2,   3,  27,   1,1.04000, -21.6995,1.10000,0.90000,1.10000,0.90000
   285,'STERLING C~4',  18.0000,2,   3,  27,   1,1.04000, -23.8924,1.10000,0.90000,1.10000,0.90000
   286,'STERLING C~5',  18.0000,2,   3,  27,   1,1.04000, -26.6069,1.10000,0.90000,1.10000,0.90000
   287,'STERLING C~6',  18.0000,2,   3,  27,   1,1.04000, -25.4413,1.10000,0.90000,1.10000,0.90000
   288,'ROSCOE 4 0  ', 115.0000,1,   3,  27,   1,0.99150, -23.5757,1.10000,0.90000,1.10000,0.90000