@!IC, SBASE,REV,XFRRAT,NXFRAT,BASFRQ
0,   100.00, 34,     0,     0, 50.00     / PSS(R)E-34.8    WED, JUL 05 2023   9:59
 08/25/93 UW ARCHIVE           100.0  1961 W IEEE 118 BUS TE

GENERAL, THRSHZ=0.0001, PQBRAK=0.7, BLOWUP=5.0
GAUSS, ITMX=100, ACCP=1.6, ACCQ=1.6, ACCM=1.0, TOL=0.0001
NEWTON, ITMXN=20, ACCN=1.0, TOLN=0.001, VCTOLQ=0.1, VCTOLV=0.00001, DVLIM=0.99, NDVFCT=0.99
ADJUST, ADJTHR=0.005, ACCTAP=1.0, TAPLIM=0.05, SWVBND=100.0, MXTPSS=99, MXSWIM=10
TYSL, ITMXTY=20, ACCTY=1.0, TOLTY=0.00001
SOLVER, FNSL, ACTAPS=0, AREAIN=0, PHSHFT=0, DCTAPS=1, SWSHNT=1, FLATST=0, VARLIM=99, NONDIV=0
RATING, 1, "RATE1 ", "RATING SET 1                    "
RATING, 2, "RATE2 ", "RATING SET 2                    "
RATING, 3, "RATE3 ", "RATING SET 3                    "
RATING, 4, "RATE4 ", "RATING SET 4                    "
RATING, 5, "RATE5 ", "RATING SET 5                    "
RATING, 6, "RATE6 ", "RATING SET 6                    "
RATING, 7, "RATE7 ", "RATING SET 7                    "
RATING, 8, "RATE8 ", "RATING SET 8                    "
RATING, 9, "RATE9 ", "RATING SET 9                    "
RATING,10, "RATE10", "RATING SET 10                   "
RATING,11, "RATE11", "RATING SET 11                   "
RATING,12, "RATE12", "RATING SET 12                   "
0 / END OF SYSTEM-WIDE DATA, BEGIN BUS DATA
@!   I,'NAME        ', BASKV, IDE,AREA,ZONE,OWNER, VM,        VA,    NVHI,   NVLO,   EVHI,   EVLO
     1,'RIVERSDE    ', 138.0000,1,   1,   1,   1,0.99422, -28.5531,1.10000,0.90000,1.10000,0.90000
     2,'POKAGON     ', 138.0000,1,   1,   1,   1,1.00751, -26.9572,1.10000,0.90000,1.10000,0.90000
     3,'HICKRYCK    ', 138.0000,1,   1,   1,   1,0.99874, -27.9628,1.10000,0.90000,1.10000,0.90000
     4,'NWCARLSL    ', 138.0000,1,   1,   1,   1,1.01044, -25.9846,1.10000,0.90000,1.10000,0.90000
     5,'OLIVE       ', 138.0000,1,   1,   1,   1,1.01179, -25.8382,1.10000,0.90000,1.10000,0.90000
     6,'KANKAKEE    ', 138.0000,1,   1,   1,   1,1.00757, -26.5400,1.10000,0.90000,1.10000,0.90000
     7,'JACKSNRD    ', 138.0000,1,   1,   1,   1,1.01312, -26.2230,1.10000,0.90000,1.10000,0.90000
     8,'OLIVE       ', 345.0000,1,   1,   1,   1,0.98233, -25.8322,1.10000,0.90000,1.10000,0.90000
    11,'SOUTHBND    ', 138.0000,1,   1,   1,   1,1.01146, -26.1260,1.10000,0.90000,1.10000,0.90000
    12,'TWINBRCH    ', 138.0000,2,   1,   1,   1,1.02486, -25.3543,1.10000,0.90000,1.10000,0.90000
    13,'CONCORD     ', 138.0000,1,   1,   1,   1,0.99436, -26.7354,1.10000,0.90000,1.10000,0.90000
    14,'GOSHENJT    ', 138.0000,1,   1,   1,   1,1.01637, -25.5185,1.10000,0.90000,1.10000,0.90000
    15,'FTWAYNE     ', 138.0000,1,   1,   1,   1,0.99717, -24.2618,1.10000,0.90000,1.10000,0.90000
    16,'N. E.       ', 138.0000,1,   1,   1,   1,1.01555, -25.3152,1.10000,0.90000,1.10000,0.90000
    17,'SORENSON    ', 138.0000,1,   1,   1,   1,1.02094, -22.7691,1.10000,0.90000,1.10000,0.90000
    18,'MCKINLEY    ', 138.0000,1,   1,   1,   1,0.99423, -24.1105,1.10000,0.90000,1.10000,0.90000
    19,'LINCOLN     ', 138.0000,2,   1,   1,   1,0.99337, -23.8794,1.10000,0.90000,1.10000,0.90000
    20,'ADAMS       ', 138.0000,1,   1,   1,   1,0.98642, -24.6664,1.10000,0.90000,1.10000,0.90000
    21,'JAY         ', 138.0000,1,   1,   1,   1,0.98560, -24.2931,1.10000,0.90000,1.10000,0.90000
    22,'RANDOLPH    ', 138.0000,1,   1,   1,   1,0.99419, -23.1035,1.10000,0.90000,1.10000,0.90000
    23,'COLLCRNR    ', 138.0000,1,   1,   1,   1,1.01682, -20.2962,1.10000,0.90000,1.10000,0.90000
    24,'TRENTON     ', 138.0000,1,   1,   1,   1,1.02126, -16.5253,1.10000,0.90000,1.10000,0.90000
    25,'TANNRSCK    ', 138.0000,1,   1,   1,   1,1.02658, -22.3622,1.10000,0.90000,1.10000,0.90000
    26,'TANNRSCK    ', 345.0000,1,   1,   1,   1,1.00647, -22.3628,1.10000,0.90000,1.10000,0.90000
    27,'MADISON     ', 138.0000,1,   1,   1,   1,1.00162, -25.1067,1.10000,0.90000,1.10000,0.90000
    28,'MULLIN      ', 138.0000,1,   1,   1,   1,0.99411, -25.6168,1.10000,0.90000,1.10000,0.90000
    29,'GRANT       ', 138.0000,1,   1,   1,   1,0.99476, -25.2611,1.10000,0.90000,1.10000,0.90000
    30,'SORENSON    ', 345.0000,1,   1,   1,   1,0.98178, -22.7627,1.10000,0.90000,1.10000,0.90000
    31,'DEERCRK     ', 138.0000,2,   1,   1,   1,0.99885, -24.6662,1.10000,0.90000,1.10000,0.90000
    32,'DELAWARE    ', 138.0000,2,   1,   1,   1,1.01206, -23.4311,1.10000,0.90000,1.10000,0.90000
    33,'HAVILAND    ', 138.0000,1,   1,   1,   1,0.99710, -21.3652,1.10000,0.90000,1.10000,0.90000
    34,'ROCKHILL    ', 138.0000,2,   1,   1,   1,1.01879, -16.5097,1.10000,0.90000,1.10000,0.90000
    35,'WESTLIMA    ', 138.0000,1,   1,   1,   1,1.02089, -16.2829,1.10000,0.90000,1.10000,0.90000
    36,'STERLING    ', 138.0000,2,   1,   1,   1,1.02259, -16.0875,1.10000,0.90000,1.10000,0.90000
    37,'EASTLIMA    ', 138.0000,1,   1,   1,   1,1.02062, -16.3320,1.10000,0.90000,1.10000,0.90000
    38,'EASTLIMA    ', 345.0000,1,   1,   1,   1,0.98617, -16.3267,1.10000,0.90000,1.10000,0.90000
    39,'NWLIBRTY    ', 138.0000,1,   1,   1,   1,1.00686, -14.9013,1.10000,0.90000,1.10000,0.90000
    40,'WEST END    ', 138.0000,2,   1,   1,   1,0.99801, -14.0427,1.10000,0.90000,1.10000,0.90000
    41,'S.TIFFIN    ', 138.0000,1,   1,   1,   1,0.99036, -13.9302,1.10000,0.90000,1.10000,0.90000
    42,'HOWARD      ', 138.0000,1,   1,   1,   1,0.99637, -10.8926,1.10000,0.90000,1.10000,0.90000
    43,'S.KENTON    ', 138.0000,1,   1,   1,   1,0.99538, -14.4057,1.10000,0.90000,1.10000,0.90000
    44,'WMVERNON    ', 138.0000,1,   1,   1,   1,0.98284,  -8.6894,1.10000,0.90000,1.10000,0.90000
    45,'N.NEWARK    ', 138.0000,1,   1,   1,   1,0.98866,  -5.7809,1.10000,0.90000,1.10000,0.90000
    46,'W.LANCST    ', 138.0000,2,   1,   1,   1,1.02000,  -0.9083,1.10000,0.90000,1.10000,0.90000
    47,'CROOKSVL    ', 138.0000,1,   1,   1,   1,1.03563,  -1.1175,1.10000,0.90000,1.10000,0.90000
    48,'ZANESVLL    ', 138.0000,1,   1,   1,   1,1.03008,  -1.9256,1.10000,0.90000,1.10000,0.90000
    49,'PHILO       ', 138.0000,2,   1,   1,   1,1.04000,  -1.7347,1.10000,0.90000,1.10000,0.90000
    50,'WCAMBRDG    ', 138.0000,1,   1,   1,   1,1.03072,  -3.0427,1.10000,0.90000,1.10000,0.90000
    51,'NEWCMRST    ', 138.0000,1,   1,   1,   1,1.01622,  -4.5827,1.10000,0.90000,1.10000,0.90000
    52,'SCOSHOCT    ', 138.0000,1,   1,   1,   1,1.01187,  -5.1754,1.10000,0.90000,1.10000,0.90000
    53,'WOOSTER     ', 138.0000,1,   1,   1,   1,1.01360,  -5.2428,1.10000,0.90000,1.10000,0.90000
    54,'TORREY      ', 138.0000,2,   1,   1,   1,1.03000,  -3.8554,1.10000,0.90000,1.10000,0.90000
    55,'WAGENHLS    ', 138.0000,1,   1,   1,   1,1.02059,  -4.6654,1.10000,0.90000,1.10000,0.90000
    56,'SUNNYSDE    ', 138.0000,1,   1,   1,   1,1.02393,  -4.4147,1.10000,0.90000,1.10000,0.90000
    57,'WNWPHIL1    ', 138.0000,1,   1,   1,   1,1.02437,  -4.2048,1.10000,0.90000,1.10000,0.90000
    58,'WNWPHIL2    ', 138.0000,1,   1,   1,   1,1.01744,  -4.7773,1.10000,0.90000,1.10000,0.90000
    59,'TIDD        ', 138.0000,2,   1,   1,   1,1.02000,  -3.8996,1.10000,0.90000,1.10000,0.90000
    60,'SWKAMMER    ', 138.0000,1,   1,   1,   1,1.02523,  -3.7047,1.10000,0.90000,1.10000,0.90000
    61,'W.KAMMER    ', 138.0000,1,   1,   1,   1,1.02814,  -3.1209,1.10000,0.90000,1.10000,0.90000
    62,'NATRIUM     ', 138.0000,1,   1,   1,   1,1.02344,  -3.6694,1.10000,0.90000,1.10000,0.90000
    63,'TIDD        ', 345.0000,1,   1,   1,   1,1.02004,  -3.8955,1.10000,0.90000,1.10000,0.90000
    64,'KAMMER      ', 345.0000,1,   1,   1,   1,1.02815,  -3.1144,1.10000,0.90000,1.10000,0.90000
    65,'MUSKNGUM    ', 345.0000,3,   1,   1,   1,1.04000,   0.0000,1.10000,0.90000,1.10000,0.90000
    66,'MUSKNGUM    ', 138.0000,1,   1,   1,   1,1.04000,  -0.0098,1.10000,0.90000,1.10000,0.90000
    67,'SUMMERFL    ', 138.0000,1,   1,   1,   1,1.02631,  -2.4930,1.10000,0.90000,1.10000,0.90000
    68,'SPORN       ', 345.0000,1,   1,   1,   1,1.03460,   1.4712,1.10000,0.90000,1.10000,0.90000
    69,'SPORN       ', 138.0000,1,   1,   1,   1,1.03458,   1.4649,1.10000,0.90000,1.10000,0.90000
    70,'PORTSMTH    ', 138.0000,2,   1,   1,   1,1.01765,  -2.7974,1.10000,0.90000,1.10000,0.90000
    71,'NPORTSMT    ', 138.0000,1,   1,   1,   1,1.02409,  -3.2298,1.10000,0.90000,1.10000,0.90000
    72,'HILLSBRO    ', 138.0000,2,   1,   1,   1,1.02000,  -7.9931,1.10000,0.90000,1.10000,0.90000
    73,'SARGENTS    ', 138.0000,2,   1,   1,   1,1.03209,  -2.5507,1.10000,0.90000,1.10000,0.90000
    74,'BELLEFNT    ', 138.0000,1,   1,   1,   1,0.98594,  -2.9255,1.10000,0.90000,1.10000,0.90000
    75,'STHPOINT    ', 138.0000,1,   1,   1,   1,0.99522,  -1.5321,1.10000,0.90000,1.10000,0.90000
    76,'DARRAH      ', 138.0000,2,   1,   1,   1,0.99622,   1.2874,1.10000,0.90000,1.10000,0.90000
    77,'TURNER      ', 138.0000,2,   1,   1,   1,1.00835,   3.6329,1.10000,0.90000,1.10000,0.90000
    78,'CHEMICAL    ', 138.0000,1,   1,   1,   1,1.00134,   3.2217,1.10000,0.90000,1.10000,0.90000
    79,'CAPITLHL    ', 138.0000,1,   1,   1,   1,0.99892,   3.2797,1.10000,0.90000,1.10000,0.90000
    80,'CABINCRK    ', 138.0000,2,   1,   1,   1,1.02000,   4.7173,1.10000,0.90000,1.10000,0.90000
    81,'KANAWHA     ', 345.0000,1,   1,   1,   1,1.02013,   4.7015,1.10000,0.90000,1.10000,0.90000
    82,'LOGAN       ', 138.0000,1,   1,   1,   1,0.98446,   7.9086,1.10000,0.90000,1.10000,0.90000
    83,'SPRIGG      ', 138.0000,1,   1,   1,   1,0.98787,   9.6087,1.10000,0.90000,1.10000,0.90000
    84,'BETSYLNE    ', 138.0000,1,   1,   1,   1,1.00237,  12.7121,1.10000,0.90000,1.10000,0.90000
    85,'BEAVERCK    ', 138.0000,2,   1,   1,   1,1.01704,  14.4842,1.10000,0.90000,1.10000,0.90000
    86,'HAZARD      ', 138.0000,1,   1,   1,   1,0.99890,  13.2004,1.10000,0.90000,1.10000,0.90000
    88,'FREMONT     ', 138.0000,1,   1,   1,   1,1.02173,  17.4612,1.10000,0.90000,1.10000,0.90000
    89,'CLINCHRV    ', 138.0000,2,   1,   1,   1,1.04000,  21.2796,1.10000,0.90000,1.10000,0.90000
    90,'HOLSTON     ', 138.0000,2,   1,   1,   1,1.02207,  19.9409,1.10000,0.90000,1.10000,0.90000
    91,'HOLSTONT    ', 138.0000,1,   1,   1,   1,1.02649,  20.6462,1.10000,0.90000,1.10000,0.90000
    92,'SALTVLLE    ', 138.0000,2,   1,   1,   1,1.03000,  21.7708,1.10000,0.90000,1.10000,0.90000
    93,'TAZEWELL    ', 138.0000,1,   1,   1,   1,1.00756,  18.1031,1.10000,0.90000,1.10000,0.90000
    94,'SWITCHBK    ', 138.0000,1,   1,   1,   1,0.99744,  15.2724,1.10000,0.90000,1.10000,0.90000
    95,'CALDWELL    ', 138.0000,1,   1,   1,   1,0.98008,  12.3130,1.10000,0.90000,1.10000,0.90000
    96,'BAILEYSV    ', 138.0000,1,   1,   1,   1,0.98421,   9.5932,1.10000,0.90000,1.10000,0.90000
    97,'SUNDIAL     ', 138.0000,1,   1,   1,   1,0.99641,   6.8204,1.10000,0.90000,1.10000,0.90000
    98,'BRADLEY     ', 138.0000,1,   1,   1,   1,1.00823,   8.8548,1.10000,0.90000,1.10000,0.90000
    99,'HINTON      ', 138.0000,1,   1,   1,   1,1.02299,  14.9440,1.10000,0.90000,1.10000,0.90000
   100,'GLEN LYN    ', 138.0000,2,   1,   1,   1,1.03000,  18.9625,1.10000,0.90000,1.10000,0.90000
   101,'WYTHE       ', 138.0000,1,   1,   1,   1,1.01744,  19.3388,1.10000,0.90000,1.10000,0.90000
   102,'SMYTHE      ', 138.0000,1,   1,   1,   1,1.02496,  20.8692,1.10000,0.90000,1.10000,0.90000
   103,'CLAYTOR     ', 138.0000,1,   1,   1,   1,1.02114,  19.8595,1.10000,0.90000,1.10000,0.90000
   104,'HANCOCK     ', 138.0000,1,   1,   1,   1,1.01161,  19.7726,1.10000,0.90000,1.10000,0.90000
   105,'ROANOKE     ', 138.0000,2,   1,   1,   1,1.01723,  20.6004,1.10000,0.90000,1.10000,0.90000
   106,'CLOVERDL    ', 138.0000,1,   1,   1,   1,1.01222,  19.3214,1.10000,0.90000,1.10000,0.90000
   107,'REUSENS     ', 138.0000,2,   1,   1,   1,1.01964,  19.4410,1.10000,0.90000,1.10000,0.90000
   108,'BLAINE      ', 138.0000,1,   1,   1,   1,1.01925,  21.9057,1.10000,0.90000,1.10000,0.90000
   109,'FRANKLIN    ', 138.0000,1,   1,   1,   1,1.02029,  22.4717,1.10000,0.90000,1.10000,0.90000
   110,'FIELDALE    ', 138.0000,2,   1,   1,   1,1.02701,  24.2681,1.10000,0.90000,1.10000,0.90000
   112,'DANVILLE    ', 138.0000,2,   1,   1,   1,1.04000,  26.9241,1.10000,0.90000,1.10000,0.90000
   113,'DEER CRK    ', 138.0000,2,   1,   1,   1,1.02054, -21.2972,1.10000,0.90000,1.10000,0.90000
   114,'WMEDFORD    ', 138.0000,1,   1,   1,   1,1.00251, -24.6783,1.10000,0.90000,1.10000,0.90000
   115,'MEDFORD     ', 138.0000,1,   1,   1,   1,1.00136, -24.8451,1.10000,0.90000,1.10000,0.90000
   117,'COREY       ', 138.0000,1,   1,   1,   1,1.00831, -26.8807,1.10000,0.90000,1.10000,0.90000
   118,'WHUNTNGD    ', 138.0000,1,   1,   1,   1,0.98925,  -0.6369,1.10000,0.90000,1.10000,0.90000
0 / END OF BUS DATA, BEGIN LOAD DATA
@!   I,'ID',STAT,AREA,ZONE,      PL,        QL,        IP,        IQ,        YP,        YQ, OWNER,SCALE,INTRPT,  DGENP,     DGENQ, DGENF
     1,'1 ',   1,   1,   1,     0.000,     0.000,    54.454,     0.000,     0.000,    -8.761,   1,    1,  0,     0.000,     0.000,   0
     2,'1 ',   1,   1,   1,     0.000,     0.000,    21.072,     0.000,     0.000,    -9.408,   1,    1,  0,     0.000,     0.000,   0
     3,'1 ',   1,   1,   1,     0.000,     0.000,    41.452,     0.000,     0.000,   -10.646,   1,    1,  0,     0.000,     0.000,   0
     4,'1 ',   1,   1,   1,     0.000,     0.000,    31.520,     0.000,     0.000,   -12.477,   1,    1,  0,     0.000,     0.000,   0
     6,'1 ',   1,   1,   1,     0.000,     0.000,    54.784,     0.000,     0.000,   -22.999,   1,    1,  0,     0.000,     0.000,   0
     7,'1 ',   1,   1,   1,     0.000,     0.000,    19.909,     0.000,     0.000,    -2.065,   1,    1,  0,     0.000,     0.000,   0
    11,'1 ',   1,   1,   1,     0.000,     0.000,    73.467,     0.000,     0.000,   -23.869,   1,    1,  0,     0.000,     0.000,   0
    12,'1 ',   1,   1,   1,     0.000,     0.000,    48.680,     0.000,     0.000,   -10.111,   1,    1,  0,     0.000,     0.000,   0
    13,'1 ',   1,   1,   1,     0.000,     0.000,    36.294,     0.000,     0.000,   -17.183,   1,    1,  0,     0.000,     0.000,   0
    14,'1 ',   1,   1,   1,     0.000,     0.000,    14.620,     0.000,     0.000,    -1.026,   1,    1,  0,     0.000,     0.000,   0
    15,'1 ',   1,   1,   1,     0.000,     0.000,    95.807,     0.000,     0.000,   -32.028,   1,    1,  0,     0.000,     0.000,   0
    16,'1 ',   1,   1,   1,     0.000,     0.000,    26.133,     0.000,     0.000,   -10.297,   1,    1,  0,     0.000,     0.000,   0
    17,'1 ',   1,   1,   1,     0.000,     0.000,    11.439,     0.000,     0.000,    -3.050,   1,    1,  0,     0.000,     0.000,   0
    18,'1 ',   1,   1,   1,     0.000,     0.000,    64.056,     0.000,     0.000,   -36.506,   1,    1,  0,     0.000,     0.000,   0
    19,'1 ',   1,   1,   1,     0.000,     0.000,    48.089,     0.000,     0.000,   -26.895,   1,    1,  0,     0.000,     0.000,   0
    20,'1 ',   1,   1,   1,     0.000,     0.000,    19.371,     0.000,     0.000,    -3.267,   1,    1,  0,     0.000,     0.000,   0
    21,'1 ',   1,   1,   1,     0.000,     0.000,    15.074,     0.000,     0.000,    -8.736,   1,    1,  0,     0.000,     0.000,   0
    22,'1 ',   1,   1,   1,     0.000,     0.000,    10.679,     0.000,     0.000,    -5.369,   1,    1,  0,     0.000,     0.000,   0
    23,'1 ',   1,   1,   1,     0.000,     0.000,     7.304,     0.000,     0.000,    -3.073,   1,    1,  0,     0.000,     0.000,   0
    27,'1 ',   1,   1,   1,     0.000,     0.000,    65.435,     0.000,     0.000,   -13.639,   1,    1,  0,     0.000,     0.000,   0
    28,'1 ',   1,   1,   1,     0.000,     0.000,    18.111,     0.000,     0.000,    -7.480,   1,    1,  0,     0.000,     0.000,   0
    29,'1 ',   1,   1,   1,     0.000,     0.000,    25.597,     0.000,     0.000,    -4.289,   1,    1,  0,     0.000,     0.000,   0
    31,'1 ',   1,   1,   1,     0.000,     0.000,    45.703,     0.000,     0.000,   -28.726,   1,    1,  0,     0.000,     0.000,   0
    32,'1 ',   1,   1,   1,     0.000,     0.000,    61.884,     0.000,     0.000,   -23.841,   1,    1,  0,     0.000,     0.000,   0
    33,'1 ',   1,   1,   1,     0.000,     0.000,    24.490,     0.000,     0.000,    -9.605,   1,    1,  0,     0.000,     0.000,   0
    34,'1 ',   1,   1,   1,     0.000,     0.000,    61.475,     0.000,     0.000,   -26.591,   1,    1,  0,     0.000,     0.000,   0
    35,'1 ',   1,   1,   1,     0.000,     0.000,    34.313,     0.000,     0.000,    -9.163,   1,    1,  0,     0.000,     0.000,   0
    36,'1 ',   1,   1,   1,     0.000,     0.000,    32.183,     0.000,     0.000,   -17.261,   1,    1,  0,     0.000,     0.000,   0
    37,'1 ',   1,   1,   1,     0.000,     0.000,    26.454,     0.000,     0.000,   -10.560,   1,    1,  0,     0.000,     0.000,   0
    40,'1 ',   1,   1,   1,     0.000,     0.000,    20.040,     0.000,     0.000,   -23.092,   1,    1,  0,     0.000,     0.000,   0
    41,'1 ',   1,   1,   1,     0.000,     0.000,    37.358,     0.000,     0.000,   -10.195,   1,    1,  0,     0.000,     0.000,   0
    42,'1 ',   1,   1,   1,     0.000,     0.000,    37.130,     0.000,     0.000,   -23.162,   1,    1,  0,     0.000,     0.000,   0
    43,'1 ',   1,   1,   1,     0.000,     0.000,    18.076,     0.000,     0.000,    -7.060,   1,    1,  0,     0.000,     0.000,   0
    44,'1 ',   1,   1,   1,     0.000,     0.000,    16.272,     0.000,     0.000,    -8.274,   1,    1,  0,     0.000,     0.000,   0
    45,'1 ',   1,   1,   1,     0.000,     0.000,    53.592,     0.000,     0.000,   -22.494,   1,    1,  0,     0.000,     0.000,   0
    46,'1 ',   1,   1,   1,     0.000,     0.000,    27.451,     0.000,     0.000,    -9.612,   1,    1,  0,     0.000,     0.000,   0
    48,'1 ',   1,   1,   1,     0.000,     0.000,    19.416,     0.000,     0.000,   -10.368,   1,    1,  0,     0.000,     0.000,   0
    49,'1 ',   1,   1,   1,     0.000,     0.000,    83.654,     0.000,     0.000,   -27.737,   1,    1,  0,     0.000,     0.000,   0
    50,'1 ',   1,   1,   1,     0.000,     0.000,    16.493,     0.000,     0.000,    -3.765,   1,    1,  0,     0.000,     0.000,   0
    51,'1 ',   1,   1,   1,     0.000,     0.000,    16.727,     0.000,     0.000,    -7.746,   1,    1,  0,     0.000,     0.000,   0
    52,'1 ',   1,   1,   1,     0.000,     0.000,    17.787,     0.000,     0.000,    -4.883,   1,    1,  0,     0.000,     0.000,   0
    53,'1 ',   1,   1,   1,     0.000,     0.000,    22.690,     0.000,     0.000,   -10.706,   1,    1,  0,     0.000,     0.000,   0
    54,'1 ',   1,   1,   1,     0.000,     0.000,   109.709,     0.000,     0.000,   -30.163,   1,    1,  0,     0.000,     0.000,   0
    55,'1 ',   1,   1,   1,     0.000,     0.000,    61.728,     0.000,     0.000,   -21.120,   1,    1,  0,     0.000,     0.000,   0
    56,'1 ',   1,   1,   1,     0.000,     0.000,    82.036,     0.000,     0.000,   -17.168,   1,    1,  0,     0.000,     0.000,   0
    57,'1 ',   1,   1,   1,     0.000,     0.000,    11.714,     0.000,     0.000,    -2.859,   1,    1,  0,     0.000,     0.000,   0
    58,'1 ',   1,   1,   1,     0.000,     0.000,    11.794,     0.000,     0.000,    -2.898,   1,    1,  0,     0.000,     0.000,   0
    59,'1 ',   1,   1,   1,     0.000,     0.000,   271.569,     0.000,     0.000,  -108.612,   1,    1,  0,     0.000,     0.000,   0
    60,'1 ',   1,   1,   1,     0.000,     0.000,    76.082,     0.000,     0.000,    -2.854,   1,    1,  0,     0.000,     0.000,   0
    62,'1 ',   1,   1,   1,     0.000,     0.000,    75.239,     0.000,     0.000,   -13.367,   1,    1,  0,     0.000,     0.000,   0
    66,'1 ',   1,   1,   1,     0.000,     0.000,    37.500,     0.000,     0.000,   -16.642,   1,    1,  0,     0.000,     0.000,   0
    67,'1 ',   1,   1,   1,     0.000,     0.000,    27.283,     0.000,     0.000,    -6.646,   1,    1,  0,     0.000,     0.000,   0
    70,'1 ',   1,   1,   1,     0.000,     0.000,    64.855,     0.000,     0.000,   -19.312,   1,    1,  0,     0.000,     0.000,   0
    74,'1 ',   1,   1,   1,     0.000,     0.000,    68.970,     0.000,     0.000,   -27.776,   1,    1,  0,     0.000,     0.000,   0
    75,'1 ',   1,   1,   1,     0.000,     0.000,    47.226,     0.000,     0.000,   -11.106,   1,    1,  0,     0.000,     0.000,   0
    76,'1 ',   1,   1,   1,     0.000,     0.000,    68.258,     0.000,     0.000,   -36.274,   1,    1,  0,     0.000,     0.000,   0
    77,'1 ',   1,   1,   1,     0.000,     0.000,    60.495,     0.000,     0.000,   -27.538,   1,    1,  0,     0.000,     0.000,   0
    78,'1 ',   1,   1,   1,     0.000,     0.000,    70.905,     0.000,     0.000,   -25.930,   1,    1,  0,     0.000,     0.000,   0
    79,'1 ',   1,   1,   1,     0.000,     0.000,    39.042,     0.000,     0.000,   -32.069,   1,    1,  0,     0.000,     0.000,   0
    80,'1 ',   1,   1,   1,     0.000,     0.000,   127.451,     0.000,     0.000,   -24.990,   1,    1,  0,     0.000,     0.000,   0
    82,'1 ',   1,   1,   1,     0.000,     0.000,    54.139,     0.000,     0.000,   -27.139,   1,    1,  0,     0.000,     0.000,   0
    83,'1 ',   1,   1,   1,     0.000,     0.000,    20.046,     0.000,     0.000,   -10.046,   1,    1,  0,     0.000,     0.000,   0
    84,'1 ',   1,   1,   1,     0.000,     0.000,    10.920,     0.000,     0.000,    -6.898,   1,    1,  0,     0.000,     0.000,   0
    85,'1 ',   1,   1,   1,     0.000,     0.000,    23.535,     0.000,     0.000,   -14.425,   1,    1,  0,     0.000,     0.000,   0
    86,'1 ',   1,   1,   1,     0.000,     0.000,    20.967,     0.000,     0.000,    -9.969,   1,    1,  0,     0.000,     0.000,   0
    88,'1 ',   1,   1,   1,     0.000,     0.000,    46.929,     0.000,     0.000,    -9.559,   1,    1,  0,     0.000,     0.000,   0
    90,'1 ',   1,   1,   1,     0.000,     0.000,    76.316,     0.000,     0.000,   -40.206,   1,    1,  0,     0.000,     0.000,   0
    92,'1 ',   1,   1,   1,     0.000,     0.000,    63.107,     0.000,     0.000,    -9.426,   1,    1,  0,     0.000,     0.000,   0
    93,'1 ',   1,   1,   1,     0.000,     0.000,    11.895,     0.000,     0.000,    -6.878,   1,    1,  0,     0.000,     0.000,   0
    94,'1 ',   1,   1,   1,     0.000,     0.000,    30.006,     0.000,     0.000,   -16.007,   1,    1,  0,     0.000,     0.000,   0
    95,'1 ',   1,   1,   1,     0.000,     0.000,    42.687,     0.000,     0.000,   -32.023,   1,    1,  0,     0.000,     0.000,   0
    96,'1 ',   1,   1,   1,     0.000,     0.000,    38.385,     0.000,     0.000,   -15.306,   1,    1,  0,     0.000,     0.000,   0
    97,'1 ',   1,   1,   1,     0.000,     0.000,    15.009,     0.000,     0.000,    -9.011,   1,    1,  0,     0.000,     0.000,   0
    98,'1 ',   1,   1,   1,     0.000,     0.000,    33.720,     0.000,     0.000,    -7.869,   1,    1,  0,     0.000,     0.000,   0
   100,'1 ',   1,   1,   1,     0.000,     0.000,    35.922,     0.000,     0.000,   -16.967,   1,    1,  0,     0.000,     0.000,   0
   101,'1 ',   1,   1,   1,     0.000,     0.000,    21.623,     0.000,     0.000,   -14.490,   1,    1,  0,     0.000,     0.000,   0
   102,'1 ',   1,   1,   1,     0.000,     0.000,     4.878,     0.000,     0.000,    -2.856,   1,    1,  0,     0.000,     0.000,   0
   103,'1 ',   1,   1,   1,     0.000,     0.000,    22.524,     0.000,     0.000,   -15.344,   1,    1,  0,     0.000,     0.000,   0
   104,'1 ',   1,   1,   1,     0.000,     0.000,    37.564,     0.000,     0.000,   -24.430,   1,    1,  0,     0.000,     0.000,   0
   105,'1 ',   1,   1,   1,     0.000,     0.000,    30.475,     0.000,     0.000,   -25.127,   1,    1,  0,     0.000,     0.000,   0
   106,'1 ',   1,   1,   1,     0.000,     0.000,    42.481,     0.000,     0.000,   -15.616,   1,    1,  0,     0.000,     0.000,   0
   107,'1 ',   1,   1,   1,     0.000,     0.000,    27.461,     0.000,     0.000,   -11.542,   1,    1,  0,     0.000,     0.000,   0
   108,'1 ',   1,   1,   1,     0.000,     0.000,     1.962,     0.000,     0.000,    -0.963,   1,    1,  0,     0.000,     0.000,   0
   109,'1 ',   1,   1,   1,     0.000,     0.000,     7.841,     0.000,     0.000,    -2.882,   1,    1,  0,     0.000,     0.000,   0
   110,'1 ',   1,   1,   1,     0.000,     0.000,    37.974,     0.000,     0.000,   -28.443,   1,    1,  0,     0.000,     0.000,   0
   112,'1 ',   1,   1,   1,     0.000,     0.000,    24.038,     0.000,     0.000,   -12.019,   1,    1,  0,     0.000,     0.000,   0
   114,'1 ',   1,   1,   1,     0.000,     0.000,     8.454,     0.000,     0.000,    -3.153,   1,    1,  0,     0.000,     0.000,   0
   115,'1 ',   1,   1,   1,     0.000,     0.000,    23.270,     0.000,     0.000,    -7.379,   1,    1,  0,     0.000,     0.000,   0
   117,'1 ',   1,   1,   1,     0.000,     0.000,    21.055,     0.000,     0.000,    -8.351,   1,    1,  0,     0.000,     0.000,   0
   118,'1 ',   1,   1,   1,     0.000,     0.000,    33.359,     0.000,     0.000,   -15.328,   1,    1,  0,     0.000,     0.000,   0
0 / END OF LOAD DATA, BEGIN FIXED SHUNT DATA
@!   I,'ID',STATUS,  GL,        BL
0 / END OF FIXED SHUNT DATA, BEGIN GENERATOR DATA
@!   I,'ID',      PG,        QG,        QT,        QB,     VS,    IREG,     MBASE,     ZR,         ZX,         RT,         XT,     GTAP,STAT, RMPCT,      PT,        PB,    O1,    F1,  O2,    F2,  O3,    F3,  O4,    F4,WMOD, WPF,NREG
    12,'1 ',   300.000,   120.588,   216.000,  -144.000,1.02486,    12,   360.000, 0.00000E+0, 1.00000E+0, 0.00000E+0, 0.00000E+0,1.00000,1,  100.0, 10000.000,-10000.000,   1,1.0000
    19,'1 ',    30.000,    15.852,    24.000,   -16.000,0.99337,    19,    40.000, 0.00000E+0, 1.00000E+0, 0.00000E+0, 0.00000E+0,1.00000,1,  100.0, 10000.000,-10000.000,   1,1.0000
    31,'1 ',    30.000,    14.598,    24.000,   -16.000,0.99885,    31,    40.000, 0.00000E+0, 1.00000E+0, 0.00000E+0, 0.00000E+0,1.00000,1,  100.0, 10000.000,-10000.000,   1,1.0000
    32,'1 ',   100.000,    40.994,    72.000,   -48.000,1.01206,    32,   120.000, 0.00000E+0, 1.00000E+0, 0.00000E+0, 0.00000E+0,1.00000,1,  100.0, 10000.000,-10000.000,   1,1.0000
    34,'1 ',    30.000,    23.954,    30.000,   -20.000,1.01879,    34,    50.000, 0.00000E+0, 1.00000E+0, 0.00000E+0, 0.00000E+0,1.00000,1,  100.0, 10000.000,-10000.000,   1,1.0000
    36,'1 ',   100.000,    31.407,    72.000,   -48.000,1.02259,    36,   120.000, 0.00000E+0, 1.00000E+0, 0.00000E+0, 0.00000E+0,1.00000,1,  100.0, 10000.000,-10000.000,   1,1.0000
    40,'1 ',    30.000,     3.340,    24.000,   -16.000,0.99801,    40,    40.000, 0.00000E+0, 1.00000E+0, 0.00000E+0, 0.00000E+0,1.00000,1,  100.0, 10000.000,-10000.000,   1,1.0000
    46,'1 ',   100.000,    -8.862,    72.000,   -48.000,1.02000,    46,   120.000, 0.00000E+0, 1.00000E+0, 0.00000E+0, 0.00000E+0,1.00000,1,  100.0, 10000.000,-10000.000,   1,1.0000
    49,'1 ',   250.000,    81.600,   180.000,  -120.000,1.04000,    49,   300.000, 0.00000E+0, 1.00000E+0, 0.00000E+0, 0.00000E+0,1.00000,1,  100.0, 10000.000,-10000.000,   1,1.0000
    54,'1 ',   250.000,    72.805,   180.000,  -120.000,1.03000,    54,   300.000, 0.00000E+0, 1.00000E+0, 0.00000E+0, 0.00000E+0,1.00000,1,  100.0, 10000.000,-10000.000,   1,1.0000
    59,'1 ',   200.000,    34.340,   138.000,   -92.000,1.02000,    59,   230.000, 0.00000E+0, 1.00000E+0, 0.00000E+0, 0.00000E+0,1.00000,1,  100.0, 10000.000,-10000.000,   1,1.0000
    65,'1 ',   511.286,    45.336,   366.000,  -244.000,1.04000,    65,   610.000, 0.00000E+0, 1.00000E+0, 0.00000E+0, 0.00000E+0,1.00000,1,  100.0, 10000.000,-10000.000,   1,1.0000
    70,'1 ',    80.000,    32.219,    60.000,   -40.000,1.01765,    70,   100.000, 0.00000E+0, 1.00000E+0, 0.00000E+0, 0.00000E+0,1.00000,1,  100.0, 10000.000,-10000.000,   1,1.0000
    72,'1 ',    30.000,    -7.460,    24.000,   -16.000,1.02000,    72,    40.000, 0.00000E+0, 1.00000E+0, 0.00000E+0, 0.00000E+0,1.00000,1,  100.0, 10000.000,-10000.000,   1,1.0000
    73,'1 ',    30.000,    12.003,    24.000,   -16.000,1.03209,    73,    40.000, 0.00000E+0, 1.00000E+0, 0.00000E+0, 0.00000E+0,1.00000,1,  100.0, 10000.000,-10000.000,   1,1.0000
    76,'1 ',   100.000,    30.010,    72.000,   -48.000,0.99622,    76,   120.000, 0.00000E+0, 1.00000E+0, 0.00000E+0, 0.00000E+0,1.00000,1,  100.0, 10000.000,-10000.000,   1,1.0000
    77,'1 ',   100.000,    48.821,    78.000,   -52.000,1.00835,    77,   130.000, 0.00000E+0, 1.00000E+0, 0.00000E+0, 0.00000E+0,1.00000,1,  100.0, 10000.000,-10000.000,   1,1.0000
    80,'1 ',   300.000,    34.651,   204.000,  -136.000,1.02000,    80,   340.000, 0.00000E+0, 1.00000E+0, 0.00000E+0, 0.00000E+0,1.00000,1,  100.0, 10000.000,-10000.000,   1,1.0000
    85,'1 ',    30.000,    30.000,    30.000,   -20.000,1.01975,    85,    50.000, 0.00000E+0, 1.00000E+0, 0.00000E+0, 0.00000E+0,1.00000,1,  100.0, 10000.000,-10000.000,   1,1.0000
    89,'1 ',   200.000,    50.029,   138.000,   -92.000,1.04000,    89,   230.000, 0.00000E+0, 1.00000E+0, 0.00000E+0, 0.00000E+0,1.00000,1,  100.0, 10000.000,-10000.000,   1,1.0000
    90,'1 ',    20.000,    15.006,    18.000,   -12.000,1.02207,    90,    30.000, 0.00000E+0, 1.00000E+0, 0.00000E+0, 0.00000E+0,1.00000,1,  100.0, 10000.000,-10000.000,   1,1.0000
    92,'1 ',   300.000,   -27.941,   204.000,  -136.000,1.03000,    92,   340.000, 0.00000E+0, 1.00000E+0, 0.00000E+0, 0.00000E+0,1.00000,1,  100.0, 10000.000,-10000.000,   1,1.0000
   100,'1 ',   300.000,    71.967,   210.000,  -140.000,1.03000,   100,   350.000, 0.00000E+0, 1.00000E+0, 0.00000E+0, 0.00000E+0,1.00000,1,  100.0, 10000.000,-10000.000,   1,1.0000
   105,'1 ',   100.000,    22.995,    72.000,   -48.000,1.01723,   105,   120.000, 0.00000E+0, 1.00000E+0, 0.00000E+0, 0.00000E+0,1.00000,1,  100.0, 10000.000,-10000.000,   1,1.0000
   107,'1 ',    20.000,    15.002,    18.000,   -12.000,1.01964,   107,    30.000, 0.00000E+0, 1.00000E+0, 0.00000E+0, 0.00000E+0,1.00000,1,  100.0, 10000.000,-10000.000,   1,1.0000